*SPEF "ieee 1481-1999"
*DESIGN "Lut"
*DATE "01:26:38 Tuesday April 28, 2026"
*VENDOR "The OpenROAD Project"
*PROGRAM "OpenROAD"
*VERSION "edf00dff99f6c40d67a30c0e22a8191c5d2ed9d6"
*DESIGN_FLOW "NAME_SCOPE LOCAL" "PIN_CAP NONE"
*DIVIDER /
*DELIMITER :
*BUS_DELIMITER []
*T_UNIT 1 NS
*C_UNIT 1 PF
*R_UNIT 1 OHM
*L_UNIT 1 HENRY

*NAME_MAP
*1 _000_
*2 _001_
*3 _002_
*4 _003_
*5 _004_
*6 _005_
*7 _006_
*8 _007_
*9 _008_
*10 _009_
*11 _010_
*12 _011_
*13 _012_
*14 _013_
*15 _014_
*16 _015_
*17 _016_
*18 _017_
*19 _018_
*20 _019_
*21 _020_
*22 _021_
*23 _022_
*24 _023_
*25 _024_
*26 _025_
*27 _026_
*28 _027_
*29 _028_
*30 _029_
*31 _030_
*32 _031_
*33 _032_
*34 _033_
*35 _034_
*36 _035_
*37 _036_
*38 _037_
*39 _038_
*40 _039_
*41 _040_
*42 _041_
*43 _042_
*44 _043_
*45 _044_
*46 _045_
*47 _046_
*48 _047_
*49 _048_
*50 _049_
*51 _050_
*52 _051_
*53 _052_
*54 _053_
*55 _054_
*56 a[0]
*57 a[1]
*58 a[2]
*59 a[3]
*60 a[4]
*61 b[0]
*62 b[1]
*63 b[2]
*64 b[3]
*65 b[4]
*66 clk
*67 out[0]
*68 out[1]
*69 out[2]
*70 out[3]
*71 out[4]
*72 out_reg[0]
*73 out_reg[1]
*74 out_reg[2]
*75 out_reg[3]
*76 out_reg[4]
*77 reset
*78 s[0]
*79 s[1]
*80 sync
*81 y[0]
*82 y[1]
*83 y[2]
*84 y[3]
*85 y[4]
*86 clknet_0_clk
*87 clknet_1_0__leaf_clk
*88 clknet_1_1__leaf_clk
*89 _055_
*90 _056_
*91 _057_
*92 _058_
*93 _059_
*94 _060_
*95 _061_
*96 _062_
*97 _063_
*98 _064_
*99 _065_
*100 _066_
*101 _067_
*102 _068_
*103 _069_
*104 _070_
*105 _071_
*106 _072_
*107 _073_
*108 _074_
*109 _075_
*110 _076_
*111 _077_
*112 _078_
*113 _079_
*114 _080_
*115 _081_
*116 _082_
*117 _083_
*118 _084_
*119 _085_
*120 _086_
*121 _087_
*122 _088_
*123 _089_
*124 _090_
*125 _091_
*126 _092_
*127 _093_
*128 _094_
*129 _095_
*130 _096_
*131 _097_
*132 _098_
*133 _099_
*134 _100_
*135 _101_
*136 _102_
*137 _103_
*138 _104_
*139 _105_
*140 _106_
*141 _107_
*142 _108_
*143 _109_
*144 _110_
*145 _111_
*146 _112_
*147 _113_
*148 _114_
*149 _115_
*150 _116_
*151 _117_
*152 _118_
*153 _119_
*154 _120_
*155 _121_
*156 _122_
*157 _123_
*158 _124_
*159 clkbuf_0_clk
*160 clkbuf_1_0__f_clk
*161 clkbuf_1_1__f_clk
*162 clkload0
*163 PHY_EDGE_ROW_0_Right_0
*164 PHY_EDGE_ROW_1_Right_1
*165 PHY_EDGE_ROW_2_Right_2
*166 PHY_EDGE_ROW_3_Right_3
*167 PHY_EDGE_ROW_4_Right_4
*168 PHY_EDGE_ROW_5_Right_5
*169 PHY_EDGE_ROW_6_Right_6
*170 PHY_EDGE_ROW_7_Right_7
*171 PHY_EDGE_ROW_8_Right_8
*172 PHY_EDGE_ROW_9_Right_9
*173 PHY_EDGE_ROW_10_Right_10
*174 PHY_EDGE_ROW_11_Right_11
*175 PHY_EDGE_ROW_12_Right_12
*176 PHY_EDGE_ROW_0_Left_13
*177 PHY_EDGE_ROW_1_Left_14
*178 PHY_EDGE_ROW_2_Left_15
*179 PHY_EDGE_ROW_3_Left_16
*180 PHY_EDGE_ROW_4_Left_17
*181 PHY_EDGE_ROW_5_Left_18
*182 PHY_EDGE_ROW_6_Left_19
*183 PHY_EDGE_ROW_7_Left_20
*184 PHY_EDGE_ROW_8_Left_21
*185 PHY_EDGE_ROW_9_Left_22
*186 PHY_EDGE_ROW_10_Left_23
*187 PHY_EDGE_ROW_11_Left_24
*188 PHY_EDGE_ROW_12_Left_25
*189 TAP_TAPCELL_ROW_0_26
*190 TAP_TAPCELL_ROW_0_27
*191 TAP_TAPCELL_ROW_0_28
*192 TAP_TAPCELL_ROW_0_29
*193 TAP_TAPCELL_ROW_0_30
*194 TAP_TAPCELL_ROW_0_31
*195 TAP_TAPCELL_ROW_0_32
*196 TAP_TAPCELL_ROW_0_33
*197 TAP_TAPCELL_ROW_0_34
*198 TAP_TAPCELL_ROW_0_35
*199 TAP_TAPCELL_ROW_0_36
*200 TAP_TAPCELL_ROW_0_37
*201 TAP_TAPCELL_ROW_0_38
*202 TAP_TAPCELL_ROW_0_39
*203 TAP_TAPCELL_ROW_0_40
*204 TAP_TAPCELL_ROW_0_41
*205 TAP_TAPCELL_ROW_0_42
*206 TAP_TAPCELL_ROW_0_43
*207 TAP_TAPCELL_ROW_1_44
*208 TAP_TAPCELL_ROW_1_45
*209 TAP_TAPCELL_ROW_1_46
*210 TAP_TAPCELL_ROW_1_47
*211 TAP_TAPCELL_ROW_1_48
*212 TAP_TAPCELL_ROW_1_49
*213 TAP_TAPCELL_ROW_1_50
*214 TAP_TAPCELL_ROW_1_51
*215 TAP_TAPCELL_ROW_1_52
*216 TAP_TAPCELL_ROW_2_53
*217 TAP_TAPCELL_ROW_2_54
*218 TAP_TAPCELL_ROW_2_55
*219 TAP_TAPCELL_ROW_2_56
*220 TAP_TAPCELL_ROW_2_57
*221 TAP_TAPCELL_ROW_2_58
*222 TAP_TAPCELL_ROW_2_59
*223 TAP_TAPCELL_ROW_2_60
*224 TAP_TAPCELL_ROW_2_61
*225 TAP_TAPCELL_ROW_3_62
*226 TAP_TAPCELL_ROW_3_63
*227 TAP_TAPCELL_ROW_3_64
*228 TAP_TAPCELL_ROW_3_65
*229 TAP_TAPCELL_ROW_3_66
*230 TAP_TAPCELL_ROW_3_67
*231 TAP_TAPCELL_ROW_3_68
*232 TAP_TAPCELL_ROW_3_69
*233 TAP_TAPCELL_ROW_3_70
*234 TAP_TAPCELL_ROW_4_71
*235 TAP_TAPCELL_ROW_4_72
*236 TAP_TAPCELL_ROW_4_73
*237 TAP_TAPCELL_ROW_4_74
*238 TAP_TAPCELL_ROW_4_75
*239 TAP_TAPCELL_ROW_4_76
*240 TAP_TAPCELL_ROW_4_77
*241 TAP_TAPCELL_ROW_4_78
*242 TAP_TAPCELL_ROW_4_79
*243 TAP_TAPCELL_ROW_5_80
*244 TAP_TAPCELL_ROW_5_81
*245 TAP_TAPCELL_ROW_5_82
*246 TAP_TAPCELL_ROW_5_83
*247 TAP_TAPCELL_ROW_5_84
*248 TAP_TAPCELL_ROW_5_85
*249 TAP_TAPCELL_ROW_5_86
*250 TAP_TAPCELL_ROW_5_87
*251 TAP_TAPCELL_ROW_5_88
*252 TAP_TAPCELL_ROW_6_89
*253 TAP_TAPCELL_ROW_6_90
*254 TAP_TAPCELL_ROW_6_91
*255 TAP_TAPCELL_ROW_6_92
*256 TAP_TAPCELL_ROW_6_93
*257 TAP_TAPCELL_ROW_6_94
*258 TAP_TAPCELL_ROW_6_95
*259 TAP_TAPCELL_ROW_6_96
*260 TAP_TAPCELL_ROW_6_97
*261 TAP_TAPCELL_ROW_7_98
*262 TAP_TAPCELL_ROW_7_99
*263 TAP_TAPCELL_ROW_7_100
*264 TAP_TAPCELL_ROW_7_101
*265 TAP_TAPCELL_ROW_7_102
*266 TAP_TAPCELL_ROW_7_103
*267 TAP_TAPCELL_ROW_7_104
*268 TAP_TAPCELL_ROW_7_105
*269 TAP_TAPCELL_ROW_7_106
*270 TAP_TAPCELL_ROW_8_107
*271 TAP_TAPCELL_ROW_8_108
*272 TAP_TAPCELL_ROW_8_109
*273 TAP_TAPCELL_ROW_8_110
*274 TAP_TAPCELL_ROW_8_111
*275 TAP_TAPCELL_ROW_8_112
*276 TAP_TAPCELL_ROW_8_113
*277 TAP_TAPCELL_ROW_8_114
*278 TAP_TAPCELL_ROW_8_115
*279 TAP_TAPCELL_ROW_9_116
*280 TAP_TAPCELL_ROW_9_117
*281 TAP_TAPCELL_ROW_9_118
*282 TAP_TAPCELL_ROW_9_119
*283 TAP_TAPCELL_ROW_9_120
*284 TAP_TAPCELL_ROW_9_121
*285 TAP_TAPCELL_ROW_9_122
*286 TAP_TAPCELL_ROW_9_123
*287 TAP_TAPCELL_ROW_9_124
*288 TAP_TAPCELL_ROW_10_125
*289 TAP_TAPCELL_ROW_10_126
*290 TAP_TAPCELL_ROW_10_127
*291 TAP_TAPCELL_ROW_10_128
*292 TAP_TAPCELL_ROW_10_129
*293 TAP_TAPCELL_ROW_10_130
*294 TAP_TAPCELL_ROW_10_131
*295 TAP_TAPCELL_ROW_10_132
*296 TAP_TAPCELL_ROW_10_133
*297 TAP_TAPCELL_ROW_11_134
*298 TAP_TAPCELL_ROW_11_135
*299 TAP_TAPCELL_ROW_11_136
*300 TAP_TAPCELL_ROW_11_137
*301 TAP_TAPCELL_ROW_11_138
*302 TAP_TAPCELL_ROW_11_139
*303 TAP_TAPCELL_ROW_11_140
*304 TAP_TAPCELL_ROW_11_141
*305 TAP_TAPCELL_ROW_11_142
*306 TAP_TAPCELL_ROW_12_143
*307 TAP_TAPCELL_ROW_12_144
*308 TAP_TAPCELL_ROW_12_145
*309 TAP_TAPCELL_ROW_12_146
*310 TAP_TAPCELL_ROW_12_147
*311 TAP_TAPCELL_ROW_12_148
*312 TAP_TAPCELL_ROW_12_149
*313 TAP_TAPCELL_ROW_12_150
*314 TAP_TAPCELL_ROW_12_151
*315 TAP_TAPCELL_ROW_12_152
*316 TAP_TAPCELL_ROW_12_153
*317 TAP_TAPCELL_ROW_12_154
*318 TAP_TAPCELL_ROW_12_155
*319 TAP_TAPCELL_ROW_12_156
*320 TAP_TAPCELL_ROW_12_157
*321 TAP_TAPCELL_ROW_12_158
*322 TAP_TAPCELL_ROW_12_159
*323 TAP_TAPCELL_ROW_12_160
*324 FILLER_0_0
*325 FILLER_0_8
*326 FILLER_0_12
*327 FILLER_0_34
*328 FILLER_0_42
*329 FILLER_0_50
*330 FILLER_0_72
*331 FILLER_0_76
*332 FILLER_1_0
*333 FILLER_1_22
*334 FILLER_1_26
*335 FILLER_1_54
*336 FILLER_2_0
*337 FILLER_2_8
*338 FILLER_2_16
*339 FILLER_2_24
*340 FILLER_2_31
*341 FILLER_2_35
*342 FILLER_2_56
*343 FILLER_2_64
*344 FILLER_2_72
*345 FILLER_2_76
*346 FILLER_3_41
*347 FILLER_3_49
*348 FILLER_3_57
*349 FILLER_3_65
*350 FILLER_3_73
*351 FILLER_3_77
*352 FILLER_4_0
*353 FILLER_4_8
*354 FILLER_4_16
*355 FILLER_4_24
*356 FILLER_4_32
*357 FILLER_4_36
*358 FILLER_4_47
*359 FILLER_4_69
*360 FILLER_4_77
*361 FILLER_5_0
*362 FILLER_5_4
*363 FILLER_5_10
*364 FILLER_5_21
*365 FILLER_5_29
*366 FILLER_5_31
*367 FILLER_5_36
*368 FILLER_5_40
*369 FILLER_5_54
*370 FILLER_5_56
*371 FILLER_5_63
*372 FILLER_5_71
*373 FILLER_5_75
*374 FILLER_5_77
*375 FILLER_6_29
*376 FILLER_6_45
*377 FILLER_6_53
*378 FILLER_7_0
*379 FILLER_7_4
*380 FILLER_7_12
*381 FILLER_7_14
*382 FILLER_7_23
*383 FILLER_7_31
*384 FILLER_7_42
*385 FILLER_7_61
*386 FILLER_7_65
*387 FILLER_7_74
*388 FILLER_8_0
*389 FILLER_8_4
*390 FILLER_8_6
*391 FILLER_8_10
*392 FILLER_8_18
*393 FILLER_8_26
*394 FILLER_8_34
*395 FILLER_8_49
*396 FILLER_8_56
*397 FILLER_8_64
*398 FILLER_8_72
*399 FILLER_8_76
*400 FILLER_9_0
*401 FILLER_9_12
*402 FILLER_9_47
*403 FILLER_9_75
*404 FILLER_9_77
*405 FILLER_10_0
*406 FILLER_10_2
*407 FILLER_10_18
*408 FILLER_10_30
*409 FILLER_10_35
*410 FILLER_10_40
*411 FILLER_10_52
*412 FILLER_10_56
*413 FILLER_11_0
*414 FILLER_11_8
*415 FILLER_11_12
*416 FILLER_11_47
*417 FILLER_11_62
*418 FILLER_11_70
*419 FILLER_12_0
*420 FILLER_12_8
*421 FILLER_12_16
*422 FILLER_12_24
*423 FILLER_12_32
*424 FILLER_12_37
*425 FILLER_12_45
*426 FILLER_12_53
*427 FILLER_12_61
*428 FILLER_12_69
*429 FILLER_12_77

*PORTS
a[0] I
a[1] I
a[2] I
a[3] I
a[4] I
b[0] I
b[1] I
b[2] I
b[3] I
b[4] I
clk I
out[0] O
out[1] O
out[2] O
out[3] O
out[4] O
reset I
s[0] I
s[1] I
sync I

*D_NET *1 0.000244737
*CONN
*I *157:RESET_B I *D sky130_fd_sc_hd__dfrtp_1
*I *90:Y O *D sky130_fd_sc_hd__clkinv_1
*CAP
1 *157:RESET_B 0.000122369
2 *90:Y 0.000122369
3 *157:RESET_B *144:A1 0
4 *157:RESET_B *87:23 0
*RES
1 *90:Y *157:RESET_B 20.6605 
*END

*D_NET *2 0.000589721
*CONN
*I *156:RESET_B I *D sky130_fd_sc_hd__dfrtp_1
*I *150:Y O *D sky130_fd_sc_hd__clkinv_1
*CAP
1 *156:RESET_B 0.00026988
2 *150:Y 0.00026988
3 *156:RESET_B *145:S 0
4 *156:RESET_B *149:B1 4.99619e-05
5 *156:RESET_B *156:CLK 0
*RES
1 *150:Y *156:RESET_B 23.7704 
*END

*D_NET *3 0.000657785
*CONN
*I *155:RESET_B I *D sky130_fd_sc_hd__dfrtp_1
*I *151:Y O *D sky130_fd_sc_hd__clkinv_1
*CAP
1 *155:RESET_B 0.000255315
2 *151:Y 0.000255315
3 *155:RESET_B *154:CLK 7.35813e-05
4 *155:RESET_B *155:CLK 7.35729e-05
5 *155:RESET_B *81:10 0
*RES
1 *151:Y *155:RESET_B 23.6954 
*END

*D_NET *4 0.000282121
*CONN
*I *154:RESET_B I *D sky130_fd_sc_hd__dfrtp_1
*I *152:Y O *D sky130_fd_sc_hd__clkinv_1
*CAP
1 *154:RESET_B 0.000120029
2 *152:Y 0.000120029
3 *154:RESET_B *147:A1 4.20634e-05
4 *154:RESET_B *160:A 0
5 *154:RESET_B *161:A 0
*RES
1 *152:Y *154:RESET_B 20.52 
*END

*D_NET *5 0.000272618
*CONN
*I *158:RESET_B I *D sky130_fd_sc_hd__dfrtp_1
*I *153:Y O *D sky130_fd_sc_hd__clkinv_1
*CAP
1 *158:RESET_B 0.000115301
2 *153:Y 0.000115301
3 *158:RESET_B *148:A_N 4.20162e-05
*RES
1 *153:Y *158:RESET_B 11.52 
*END

*D_NET *6 0.000316454
*CONN
*I *104:B I *D sky130_fd_sc_hd__maj3_1
*I *89:Y O *D sky130_fd_sc_hd__clkinv_1
*CAP
1 *104:B 8.45737e-05
2 *89:Y 8.45737e-05
3 *104:B *89:A 0.00011852
4 *104:B *20:12 2.87867e-05
5 *104:B *78:79 0
*RES
1 *89:Y *104:B 29.8856 
*END

*D_NET *7 0.000783424
*CONN
*I *114:B I *D sky130_fd_sc_hd__nor3_1
*I *91:Y O *D sky130_fd_sc_hd__nor2_1
*CAP
1 *114:B 0.000225357
2 *91:Y 0.000225357
3 *114:B *91:B 1.61831e-05
4 *114:B *114:C 0.000289004
5 *114:B *59:64 2.75229e-05
6 *114:B *84:10 0
*RES
1 *91:Y *114:B 32.8643 
*END

*D_NET *8 0.00207231
*CONN
*I *106:A I *D sky130_fd_sc_hd__xnor2_1
*I *112:A I *D sky130_fd_sc_hd__xor2_1
*I *135:A1 I *D sky130_fd_sc_hd__o21ai_0
*I *92:X O *D sky130_fd_sc_hd__xor2_1
*CAP
1 *106:A 0
2 *112:A 0
3 *135:A1 0.00022089
4 *92:X 7.71054e-05
5 *8:14 0.000518805
6 *8:8 0.000375021
7 *135:A1 *115:A2 0
8 *135:A1 *116:A1 5.21706e-05
9 *135:A1 *135:A2 2.75145e-05
10 *135:A1 *135:B1 8.25609e-05
11 *135:A1 *136:B 0.000120655
12 *8:8 *138:A 6.97118e-05
13 *8:14 *106:B 9.27326e-05
14 *8:14 *112:B 0.000119314
15 *8:14 *138:A 2.10673e-05
16 *8:14 *138:B 8.8266e-05
17 *8:14 *138:C 4.99619e-05
18 *8:14 *27:8 1.61831e-05
19 *8:14 *50:8 0.000122331
20 *8:14 *78:38 1.80164e-05
*RES
1 *92:X *8:8 11.1734 
2 *8:8 *8:14 7.49368 
3 *8:14 *135:A1 23.3957 
4 *8:14 *112:A 9.3 
5 *8:8 *106:A 9.3 
*END

*D_NET *9 0.000196844
*CONN
*I *120:B I *D sky130_fd_sc_hd__nor3_1
*I *93:Y O *D sky130_fd_sc_hd__nor2_1
*CAP
1 *120:B 5.04116e-05
2 *93:Y 5.04116e-05
3 *120:B *119:A1 1.60203e-05
4 *120:B *120:C 4.99619e-05
5 *120:B *63:42 3.00381e-05
*RES
1 *93:Y *120:B 20.0238 
*END

*D_NET *10 0.0028647
*CONN
*I *118:A I *D sky130_fd_sc_hd__nand3_1
*I *109:A_N I *D sky130_fd_sc_hd__nand2b_1
*I *117:A I *D sky130_fd_sc_hd__nor2b_1
*I *103:A I *D sky130_fd_sc_hd__lpflow_isobufsrc_1
*I *94:Y O *D sky130_fd_sc_hd__xnor2_1
*CAP
1 *118:A 0.000147183
2 *109:A_N 0
3 *117:A 0.000174947
4 *103:A 6.98891e-05
5 *94:Y 0.000139413
6 *10:27 0.000228518
7 *10:25 0.000549307
8 *10:8 0.000557855
9 *103:A *89:A 0
10 *103:A *78:79 4.40812e-05
11 *117:A *108:A1 0
12 *117:A *122:A2 4.99619e-05
13 *117:A *122:B1 0.000111337
14 *117:A *125:B 0
15 *117:A *18:8 2.75229e-05
16 *117:A *26:12 0
17 *117:A *79:40 0
18 *118:A *96:A 9.46152e-06
19 *118:A *96:B 4.87465e-06
20 *118:A *118:B 3.90732e-05
21 *118:A *118:C 0.000103398
22 *118:A *119:A2 1.56296e-05
23 *118:A *62:13 8.65961e-05
24 *118:A *78:79 0
25 *10:8 *110:A 5.30673e-05
26 *10:8 *58:36 3.23663e-05
27 *10:25 *89:A 0
28 *10:25 *110:C 3.09088e-05
29 *10:25 *121:A1 0.000124895
30 *10:25 *121:B1 3.29495e-05
31 *10:25 *26:12 0.000118081
32 *10:25 *58:34 5.4003e-05
33 *10:25 *78:79 5.0856e-05
34 *10:27 *108:A1 0
35 *10:27 *108:B1 0
36 *10:27 *118:C 8.53113e-06
*RES
1 *94:Y *10:8 16.0856 
2 *10:8 *103:A 15.5235 
3 *10:8 *10:25 15.5944 
4 *10:25 *10:27 1.08658 
5 *10:27 *117:A 17.4157 
6 *10:27 *109:A_N 13.8 
7 *10:25 *118:A 17.603 
*END

*D_NET *11 0.00173051
*CONN
*I *102:B1 I *D sky130_fd_sc_hd__a21oi_1
*I *95:X O *D sky130_fd_sc_hd__lpflow_isobufsrc_1
*CAP
1 *102:B1 0.00027381
2 *95:X 0.00027381
3 *102:B1 *96:B 4.82919e-05
4 *102:B1 *108:A1 2.23407e-05
5 *102:B1 *108:B1 2.97204e-05
6 *102:B1 *118:C 0
7 *102:B1 *125:B 0.000136877
8 *102:B1 *127:C 0.000159289
9 *102:B1 *14:14 0.000198934
10 *102:B1 *57:19 1.61831e-05
11 *102:B1 *57:30 0.000263002
12 *102:B1 *57:32 0.000150653
13 *102:B1 *79:40 0.000157595
*RES
1 *95:X *102:B1 37.6041 
*END

*D_NET *12 0.000985578
*CONN
*I *108:B1 I *D sky130_fd_sc_hd__o21ai_0
*I *118:B I *D sky130_fd_sc_hd__nand3_1
*I *96:Y O *D sky130_fd_sc_hd__nand2_1
*CAP
1 *108:B1 0.000145272
2 *118:B 0.000110377
3 *96:Y 0
4 *12:4 0.000255649
5 *108:B1 *96:B 2.75145e-05
6 *108:B1 *108:A1 0.000151579
7 *108:B1 *118:C 1.91597e-05
8 *108:B1 *15:37 8.23457e-05
9 *108:B1 *24:10 4.93614e-05
10 *118:B *96:B 3.3762e-05
11 *118:B *118:C 3.82435e-05
12 *118:B *62:13 3.52139e-06
13 *102:B1 *108:B1 2.97204e-05
14 *118:A *118:B 3.90732e-05
15 *10:27 *108:B1 0
*RES
1 *96:Y *12:4 9.3 
2 *12:4 *118:B 12.0727 
3 *12:4 *108:B1 22.4403 
*END

*D_NET *13 0.00147608
*CONN
*I *127:B I *D sky130_fd_sc_hd__nor3_1
*I *108:A1 I *D sky130_fd_sc_hd__o21ai_0
*I *97:Y O *D sky130_fd_sc_hd__nor2_1
*CAP
1 *127:B 0
2 *108:A1 7.61768e-05
3 *97:Y 0.000199873
4 *13:12 0.00027605
5 *108:A1 *118:C 0.000233004
6 *108:A1 *125:B 9.50342e-06
7 *108:A1 *15:37 1.46828e-05
8 *108:A1 *79:40 8.57024e-05
9 *13:12 *97:A 9.0444e-05
10 *13:12 *97:B 8.40213e-05
11 *13:12 *126:B1 6.60257e-06
12 *13:12 *127:C 9.14049e-05
13 *13:12 *79:28 0.000134692
14 *102:B1 *108:A1 2.23407e-05
15 *108:B1 *108:A1 0.000151579
16 *117:A *108:A1 0
17 *10:27 *108:A1 0
*RES
1 *97:Y *13:12 23.2458 
2 *13:12 *108:A1 21.7846 
3 *13:12 *127:B 9.3 
*END

*D_NET *14 0.00401815
*CONN
*I *107:A I *D sky130_fd_sc_hd__lpflow_inputiso1p_1
*I *102:A1 I *D sky130_fd_sc_hd__a21oi_1
*I *125:A I *D sky130_fd_sc_hd__nand2_1
*I *124:A1 I *D sky130_fd_sc_hd__a21o_1
*I *123:A I *D sky130_fd_sc_hd__nor2_1
*I *98:Y O *D sky130_fd_sc_hd__xnor2_1
*CAP
1 *107:A 0
2 *102:A1 0
3 *125:A 5.48666e-05
4 *124:A1 0
5 *123:A 0.000278082
6 *98:Y 0.000314378
7 *14:46 0.000182579
8 *14:22 0.0004239
9 *14:16 0.00027353
10 *14:14 0.000314378
11 *123:A *102:A2 1.46744e-05
12 *123:A *17:16 2.16917e-05
13 *123:A *17:22 0.000222802
14 *125:A *125:B 0
15 *125:A *128:A3 0.000124007
16 *125:A *18:8 5.17933e-05
17 *14:14 *102:A2 4.82919e-05
18 *14:14 *107:SLEEP 8.23457e-05
19 *14:14 *128:A1 1.03323e-05
20 *14:14 *128:A2 1.47347e-05
21 *14:14 *128:A3 3.63661e-05
22 *14:14 *128:B1 9.14049e-05
23 *14:14 *129:B1 2.65814e-06
24 *14:14 *142:C 5.42473e-05
25 *14:14 *45:14 0
26 *14:14 *71:10 0.000266612
27 *14:14 *83:14 0.000307043
28 *14:22 *102:A2 7.15213e-05
29 *14:22 *118:C 7.21296e-06
30 *14:22 *122:A2 0.000152821
31 *14:22 *129:A2 3.96737e-05
32 *14:22 *21:42 3.09233e-05
33 *14:22 *79:40 6.43877e-05
34 *14:22 *83:14 9.30787e-05
35 *14:46 *118:C 2.82154e-05
36 *14:46 *79:40 8.66672e-05
37 *14:46 *83:14 5.39961e-05
38 *102:B1 *14:14 0.000198934
*RES
1 *98:Y *14:14 28.1167 
2 *14:14 *14:16 4.5 
3 *14:16 *14:22 9.55823 
4 *14:22 *123:A 14.096 
5 *14:22 *124:A1 9.3 
6 *14:16 *14:46 7.98456 
7 *14:46 *125:A 11.1734 
8 *14:46 *102:A1 9.3 
9 *14:14 *107:A 9.3 
*END

*D_NET *15 0.00438903
*CONN
*I *131:A2 I *D sky130_fd_sc_hd__o22ai_1
*I *108:A2 I *D sky130_fd_sc_hd__o21ai_0
*I *125:B I *D sky130_fd_sc_hd__nand2_1
*I *107:SLEEP I *D sky130_fd_sc_hd__lpflow_inputiso1p_1
*I *99:Y O *D sky130_fd_sc_hd__nand2_1
*CAP
1 *131:A2 3.52163e-05
2 *108:A2 0
3 *125:B 0.000152358
4 *107:SLEEP 2.4121e-05
5 *99:Y 0.000206686
6 *15:37 0.00033734
7 *15:18 0.000658747
8 *15:10 0.000691546
9 *107:SLEEP *128:A3 8.23457e-05
10 *125:B *122:A2 2.76781e-05
11 *125:B *128:A3 1.16578e-05
12 *125:B *18:8 3.00381e-05
13 *15:10 *99:A 7.10578e-05
14 *15:10 *101:B 1.91597e-05
15 *15:10 *131:B1 4.65643e-05
16 *15:10 *56:11 7.30547e-05
17 *15:10 *61:9 5.23362e-05
18 *15:10 *80:33 6.92253e-05
19 *15:10 *81:10 0
20 *15:18 *102:A2 8.42239e-05
21 *15:18 *105:B 8.97228e-05
22 *15:18 *118:C 4.9968e-05
23 *15:18 *128:A2 0.000453084
24 *15:18 *131:B1 9.50342e-06
25 *15:18 *137:B 7.63204e-05
26 *15:18 *139:A2 0
27 *15:18 *140:A2 2.46007e-05
28 *15:18 *21:42 3.88431e-05
29 *15:18 *71:10 1.44259e-05
30 *15:18 *80:33 2.24905e-05
31 *15:18 *81:10 1.82476e-05
32 *15:37 *118:C 0.000124311
33 *15:37 *128:B1 0.00019637
34 *15:37 *142:A 3.96653e-05
35 *15:37 *24:10 8.23457e-05
36 *15:37 *71:10 4.62478e-05
37 *15:37 *79:40 0.000103775
38 *102:B1 *125:B 0.000136877
39 *108:A1 *125:B 9.50342e-06
40 *108:A1 *15:37 1.46828e-05
41 *108:B1 *15:37 8.23457e-05
42 *117:A *125:B 0
43 *125:A *125:B 0
44 *14:14 *107:SLEEP 8.23457e-05
*RES
1 *99:Y *15:10 18.6522 
2 *15:10 *15:18 12.2147 
3 *15:18 *107:SLEEP 14.7929 
4 *15:18 *15:37 11.1319 
5 *15:37 *125:B 21.9157 
6 *15:37 *108:A2 9.3 
7 *15:10 *131:A2 14.362 
*END

*D_NET *16 0.000529497
*CONN
*I *131:B1 I *D sky130_fd_sc_hd__o22ai_1
*I *100:Y O *D sky130_fd_sc_hd__xnor2_1
*CAP
1 *131:B1 0.000159466
2 *100:Y 0.000159466
3 *131:B1 *99:B 5.05437e-05
4 *131:B1 *101:A_N 2.49909e-05
5 *131:B1 *56:13 2.49909e-05
6 *131:B1 *81:10 5.39718e-05
7 *15:10 *131:B1 4.65643e-05
8 *15:18 *131:B1 9.50342e-06
*RES
1 *100:Y *131:B1 30.8598 
*END

*D_NET *17 0.00271772
*CONN
*I *123:B I *D sky130_fd_sc_hd__nor2_1
*I *124:A2 I *D sky130_fd_sc_hd__a21o_1
*I *102:A2 I *D sky130_fd_sc_hd__a21oi_1
*I *101:Y O *D sky130_fd_sc_hd__nand2b_1
*CAP
1 *123:B 0
2 *124:A2 0
3 *102:A2 0.000137102
4 *101:Y 0.000340252
5 *17:22 0.000206316
6 *17:16 0.000409466
7 *102:A2 *118:C 5.16348e-05
8 *102:A2 *122:A2 0.000162325
9 *102:A2 *128:A3 8.40269e-05
10 *102:A2 *129:A2 8.49205e-05
11 *102:A2 *21:42 9.50342e-06
12 *102:A2 *83:14 1.91597e-05
13 *17:16 *101:B 5.83121e-06
14 *17:16 *129:A1 5.83121e-06
15 *17:16 *130:A 0
16 *17:16 *130:B 3.09179e-05
17 *17:16 *143:A 0
18 *17:16 *149:A4 1.94636e-05
19 *17:16 *158:D 0
20 *17:16 *45:14 0.000116158
21 *17:16 *82:22 0.000439406
22 *17:22 *129:A1 0.000118876
23 *17:22 *129:A2 1.33285e-05
24 *123:A *102:A2 1.46744e-05
25 *123:A *17:16 2.16917e-05
26 *123:A *17:22 0.000222802
27 *14:14 *102:A2 4.82919e-05
28 *14:22 *102:A2 7.15213e-05
29 *15:18 *102:A2 8.42239e-05
*RES
1 *101:Y *17:16 27.2362 
2 *17:16 *17:22 3.18481 
3 *17:22 *102:A2 23.8453 
4 *17:22 *124:A2 9.3 
5 *17:16 *123:B 9.3 
*END

*D_NET *18 0.00166382
*CONN
*I *117:B_N I *D sky130_fd_sc_hd__nor2b_1
*I *103:SLEEP I *D sky130_fd_sc_hd__lpflow_isobufsrc_1
*I *104:C I *D sky130_fd_sc_hd__maj3_1
*I *102:Y O *D sky130_fd_sc_hd__a21oi_1
*CAP
1 *117:B_N 0
2 *103:SLEEP 1.90984e-05
3 *104:C 0.000187306
4 *102:Y 0.000264795
5 *18:10 0.000409253
6 *18:8 0.000467644
7 *103:SLEEP *122:A1 4.00541e-06
8 *18:8 *122:A2 5.4882e-05
9 *18:8 *128:A3 1.12578e-05
10 *18:10 *122:A1 3.00381e-05
11 *18:10 *122:A2 0.00010619
12 *117:A *18:8 2.75229e-05
13 *125:A *18:8 5.17933e-05
14 *125:B *18:8 3.00381e-05
*RES
1 *102:Y *18:8 13.7868 
2 *18:8 *18:10 4.00912 
3 *18:10 *104:C 12.4473 
4 *18:10 *103:SLEEP 9.74962 
5 *18:8 *117:B_N 9.3 
*END

*D_NET *19 0.000111493
*CONN
*I *122:A1 I *D sky130_fd_sc_hd__o31ai_1
*I *103:X O *D sky130_fd_sc_hd__lpflow_isobufsrc_1
*CAP
1 *122:A1 3.87247e-05
2 *103:X 3.87247e-05
3 *103:SLEEP *122:A1 4.00541e-06
4 *18:10 *122:A1 3.00381e-05
*RES
1 *103:X *122:A1 19.6116 
*END

*D_NET *20 0.0018316
*CONN
*I *135:A2 I *D sky130_fd_sc_hd__o21ai_0
*I *106:B I *D sky130_fd_sc_hd__xnor2_1
*I *104:X O *D sky130_fd_sc_hd__maj3_1
*CAP
1 *135:A2 7.13581e-05
2 *106:B 0.000141525
3 *104:X 0.000294036
4 *20:12 0.000506919
5 *106:B *116:A2 6.10014e-05
6 *106:B *138:A 0.00016063
7 *106:B *78:9 0
8 *106:B *78:24 0
9 *106:B *78:38 7.21296e-06
10 *106:B *84:10 0.000112123
11 *135:A2 *116:A1 0.000283865
12 *135:A2 *84:10 2.54431e-05
13 *20:12 *89:A 0
14 *20:12 *138:B 0
15 *20:12 *78:24 0
16 *20:12 *78:38 1.7396e-05
17 *20:12 *78:79 1.06073e-06
18 *104:B *20:12 2.87867e-05
19 *135:A1 *135:A2 2.75145e-05
20 *8:14 *106:B 9.27326e-05
*RES
1 *104:X *20:12 19.6263 
2 *20:12 *106:B 18.3337 
3 *20:12 *135:A2 16.5165 
*END

*D_NET *21 0.00483193
*CONN
*I *122:A2 I *D sky130_fd_sc_hd__o31ai_1
*I *124:B1 I *D sky130_fd_sc_hd__a21o_1
*I *116:A1 I *D sky130_fd_sc_hd__o21ai_0
*I *137:A I *D sky130_fd_sc_hd__nor2_1
*I *105:Y O *D sky130_fd_sc_hd__nand2_1
*CAP
1 *122:A2 0.000220166
2 *124:B1 0
3 *116:A1 0.000460873
4 *137:A 0
5 *105:Y 9.01097e-05
6 *21:42 0.000375268
7 *21:21 0.000665546
8 *21:12 0.000139681
9 *116:A1 *91:A 1.85674e-05
10 *116:A1 *136:B 7.53903e-05
11 *116:A1 *45:20 0.000197264
12 *116:A1 *52:10 3.03775e-05
13 *116:A1 *59:64 0
14 *116:A1 *78:24 0.000160635
15 *116:A1 *84:10 4.66826e-05
16 *122:A2 *122:A3 0.000279787
17 *122:A2 *128:A3 0.000270409
18 *122:A2 *83:14 0.000253264
19 *21:12 *128:A2 0.000136877
20 *21:12 *45:14 3.83194e-05
21 *21:12 *49:6 8.23457e-05
22 *21:12 *80:33 4.05358e-05
23 *21:12 *82:22 0
24 *21:21 *45:14 0.000150653
25 *21:21 *45:20 1.08758e-05
26 *21:21 *49:6 2.16833e-05
27 *21:21 *52:10 3.52525e-05
28 *21:42 *140:A2 9.50342e-06
29 *21:42 *79:40 5.26955e-05
30 *102:A2 *122:A2 0.000162325
31 *102:A2 *21:42 9.50342e-06
32 *117:A *122:A2 4.99619e-05
33 *125:B *122:A2 2.76781e-05
34 *135:A1 *116:A1 5.21706e-05
35 *135:A2 *116:A1 0.000283865
36 *14:22 *122:A2 0.000152821
37 *14:22 *21:42 3.09233e-05
38 *15:18 *21:42 3.88431e-05
39 *18:8 *122:A2 5.4882e-05
40 *18:10 *122:A2 0.00010619
*RES
1 *105:Y *21:12 21.3349 
2 *21:12 *137:A 9.3 
3 *21:12 *21:21 2.30431 
4 *21:21 *116:A1 21.5334 
5 *21:21 *21:42 8.00329 
6 *21:42 *124:B1 13.8 
7 *21:42 *122:A2 24.4129 
*END

*D_NET *22 0.000630486
*CONN
*I *116:A2 I *D sky130_fd_sc_hd__o21ai_0
*I *106:Y O *D sky130_fd_sc_hd__xnor2_1
*CAP
1 *116:A2 0.000158577
2 *106:Y 0.000158577
3 *116:A2 *138:A 0.000121437
4 *116:A2 *138:B 1.47347e-05
5 *116:A2 *78:38 0.000116158
6 *106:B *116:A2 6.10014e-05
*RES
1 *106:Y *116:A2 31.1782 
*END

*D_NET *23 0.00272918
*CONN
*I *128:A1 I *D sky130_fd_sc_hd__a31oi_1
*I *118:C I *D sky130_fd_sc_hd__nand3_1
*I *107:X O *D sky130_fd_sc_hd__lpflow_inputiso1p_1
*CAP
1 *128:A1 0.000128485
2 *118:C 0.000666576
3 *107:X 0
4 *23:4 0.000795061
5 *118:C *120:C 0
6 *118:C *121:A1 0.00012657
7 *118:C *121:A3 4.82863e-05
8 *118:C *127:C 0
9 *118:C *128:A3 4.66108e-05
10 *118:C *142:A 2.49909e-05
11 *118:C *24:10 1.12578e-05
12 *118:C *62:13 1.17309e-05
13 *118:C *71:10 0
14 *118:C *79:28 5.23362e-05
15 *118:C *79:40 4.35348e-05
16 *128:A1 *128:A2 8.63964e-05
17 *128:A1 *128:A3 1.33285e-05
18 *102:A2 *118:C 5.16348e-05
19 *102:B1 *118:C 0
20 *108:A1 *118:C 0.000233004
21 *108:B1 *118:C 1.91597e-05
22 *118:A *118:C 0.000103398
23 *118:B *118:C 3.82435e-05
24 *10:27 *118:C 8.53113e-06
25 *14:14 *128:A1 1.03323e-05
26 *14:22 *118:C 7.21296e-06
27 *14:46 *118:C 2.82154e-05
28 *15:18 *118:C 4.9968e-05
29 *15:37 *118:C 0.000124311
*RES
1 *107:X *23:4 9.3 
2 *23:4 *118:C 41.1446 
3 *23:4 *128:A1 11.9415 
*END

*D_NET *24 0.00136737
*CONN
*I *109:B I *D sky130_fd_sc_hd__nand2b_1
*I *110:C I *D sky130_fd_sc_hd__maj3_1
*I *108:Y O *D sky130_fd_sc_hd__o21ai_0
*CAP
1 *109:B 0
2 *110:C 0.000241751
3 *108:Y 0.000156802
4 *24:10 0.000398553
5 *110:C *121:A1 3.05189e-05
6 *110:C *121:A3 4.82863e-05
7 *110:C *121:B1 0.000172936
8 *110:C *122:B1 4.82863e-05
9 *110:C *26:12 2.0514e-05
10 *24:10 *121:A1 7.58462e-05
11 *108:B1 *24:10 4.93614e-05
12 *118:C *24:10 1.12578e-05
13 *10:25 *110:C 3.09088e-05
14 *15:37 *24:10 8.23457e-05
*RES
1 *108:Y *24:10 13.4543 
2 *24:10 *110:C 15.3371 
3 *24:10 *109:B 9.3 
*END

*D_NET *25 0.000572978
*CONN
*I *121:A1 I *D sky130_fd_sc_hd__a31oi_1
*I *109:Y O *D sky130_fd_sc_hd__nand2b_1
*CAP
1 *121:A1 7.62734e-05
2 *109:Y 7.62734e-05
3 *121:A1 *121:B1 6.26016e-05
4 *110:C *121:A1 3.05189e-05
5 *118:C *121:A1 0.00012657
6 *10:25 *121:A1 0.000124895
7 *24:10 *121:A1 7.58462e-05
*RES
1 *109:Y *121:A1 22.197 
*END

*D_NET *26 0.00226982
*CONN
*I *112:B I *D sky130_fd_sc_hd__xor2_1
*I *138:C I *D sky130_fd_sc_hd__maj3_1
*I *110:X O *D sky130_fd_sc_hd__maj3_1
*CAP
1 *112:B 5.4353e-05
2 *138:C 1.11303e-05
3 *110:X 0.000317281
4 *26:12 0.000382764
5 *112:B *27:8 4.66826e-05
6 *112:B *78:38 1.19928e-05
7 *138:C *78:38 1.83756e-05
8 *26:12 *116:B1 0.00010506
9 *26:12 *121:A2 0.000615584
10 *26:12 *121:A3 4.9968e-05
11 *26:12 *121:B1 8.23457e-05
12 *26:12 *27:12 5.4003e-05
13 *26:12 *78:38 2.25075e-05
14 *26:12 *78:79 0.000189897
15 *110:C *26:12 2.0514e-05
16 *117:A *26:12 0
17 *8:14 *112:B 0.000119314
18 *8:14 *138:C 4.99619e-05
19 *10:25 *26:12 0.000118081
*RES
1 *110:X *26:12 30.6833 
2 *26:12 *138:C 9.86203 
3 *26:12 *112:B 11.1734 
*END

*D_NET *27 0.00597361
*CONN
*I *128:A2 I *D sky130_fd_sc_hd__a31oi_1
*I *121:A2 I *D sky130_fd_sc_hd__a31oi_1
*I *139:B1 I *D sky130_fd_sc_hd__o21ai_0
*I *115:A1 I *D sky130_fd_sc_hd__a21oi_1
*I *111:X O *D sky130_fd_sc_hd__lpflow_isobufsrc_1
*CAP
1 *128:A2 0.000228363
2 *121:A2 0.000254984
3 *139:B1 0.000106108
4 *115:A1 2.96362e-05
5 *111:X 0
6 *27:12 0.000254559
7 *27:8 0.000601984
8 *27:4 0.000456548
9 *115:A1 *114:A 9.52208e-05
10 *115:A1 *115:A2 4.82863e-05
11 *115:A1 *135:B1 3.25635e-05
12 *121:A2 *122:B1 4.61744e-05
13 *121:A2 *135:B1 0.000134516
14 *128:A2 *105:B 1.07107e-05
15 *128:A2 *128:A3 4.35648e-05
16 *128:A2 *71:10 0.000151771
17 *128:A2 *78:53 7.67415e-06
18 *128:A2 *80:33 5.12017e-06
19 *128:A2 *82:22 0
20 *139:B1 *114:A 0.000536258
21 *139:B1 *115:A2 0.000278117
22 *139:B1 *139:A2 8.8266e-05
23 *27:8 *136:B 4.82919e-05
24 *27:8 *137:B 0.000122337
25 *27:8 *50:8 0.000102679
26 *27:8 *78:38 0.000604046
27 *27:8 *78:53 4.33674e-05
28 *27:12 *116:B1 3.99039e-05
29 *27:12 *135:B1 0.000179015
30 *27:12 *138:B 0
31 *112:B *27:8 4.66826e-05
32 *128:A1 *128:A2 8.63964e-05
33 *8:14 *27:8 1.61831e-05
34 *14:14 *128:A2 1.47347e-05
35 *15:18 *128:A2 0.000453084
36 *21:12 *128:A2 0.000136877
37 *26:12 *121:A2 0.000615584
38 *26:12 *27:12 5.4003e-05
*RES
1 *111:X *27:4 9.3 
2 *27:4 *27:8 13.2489 
3 *27:8 *27:12 7.81595 
4 *27:12 *115:A1 10.7425 
5 *27:12 *139:B1 15.4636 
6 *27:8 *121:A2 22.8486 
7 *27:4 *128:A2 27.0114 
*END

*D_NET *28 0.000903451
*CONN
*I *115:A2 I *D sky130_fd_sc_hd__a21oi_1
*I *112:X O *D sky130_fd_sc_hd__xor2_1
*CAP
1 *115:A2 0.000242907
2 *112:X 0.000242907
3 *115:A2 *135:B1 8.57024e-05
4 *115:A2 *136:B 5.53249e-06
5 *115:A2 *139:A1 0
6 *115:A2 *45:20 0
7 *115:A1 *115:A2 4.82863e-05
8 *135:A1 *115:A2 0
9 *139:B1 *115:A2 0.000278117
*RES
1 *112:X *115:A2 33.8572 
*END

*D_NET *29 0.000776723
*CONN
*I *114:C I *D sky130_fd_sc_hd__nor3_1
*I *113:Y O *D sky130_fd_sc_hd__a21oi_1
*CAP
1 *114:C 0.000146173
2 *113:Y 0.000146173
3 *114:C *59:47 0.000103192
4 *114:C *59:64 7.4545e-05
5 *114:C *78:9 1.7635e-05
6 *114:B *114:C 0.000289004
*RES
1 *113:Y *114:C 32.4334 
*END

*D_NET *30 0.000958397
*CONN
*I *115:B1 I *D sky130_fd_sc_hd__a21oi_1
*I *114:Y O *D sky130_fd_sc_hd__nor3_1
*CAP
1 *115:B1 0.000312813
2 *114:Y 0.000312813
3 *115:B1 *114:A 4.3875e-05
4 *115:B1 *134:A_N 0.000237243
5 *115:B1 *134:B 1.20789e-05
6 *115:B1 *135:B1 3.95724e-05
*RES
1 *114:Y *115:B1 23.9205 
*END

*D_NET *31 0.000588946
*CONN
*I *116:B1 I *D sky130_fd_sc_hd__o21ai_0
*I *115:Y O *D sky130_fd_sc_hd__a21oi_1
*CAP
1 *116:B1 0.000153546
2 *115:Y 0.000153546
3 *116:B1 *135:B1 1.41559e-05
4 *116:B1 *138:B 6.57653e-06
5 *116:B1 *78:38 0.000116158
6 *116:B1 *84:10 0
7 *26:12 *116:B1 0.00010506
8 *27:12 *116:B1 3.99039e-05
*RES
1 *115:Y *116:B1 32.0306 
*END

*D_NET *32 0.000611204
*CONN
*I *122:A3 I *D sky130_fd_sc_hd__o31ai_1
*I *117:Y O *D sky130_fd_sc_hd__nor2b_1
*CAP
1 *122:A3 4.49675e-05
2 *117:Y 4.49675e-05
3 *122:A3 *83:14 0.000241483
4 *122:A2 *122:A3 0.000279787
*RES
1 *117:Y *122:A3 21.7473 
*END

*D_NET *33 0.000911077
*CONN
*I *121:A3 I *D sky130_fd_sc_hd__a31oi_1
*I *118:Y O *D sky130_fd_sc_hd__nand3_1
*CAP
1 *121:A3 0.000254513
2 *118:Y 0.000254513
3 *121:A3 *119:A1 2.66586e-05
4 *121:A3 *120:C 4.82919e-05
5 *121:A3 *121:B1 0.000160408
6 *121:A3 *62:13 8.58339e-06
7 *121:A3 *78:79 1.15688e-05
8 *110:C *121:A3 4.82863e-05
9 *118:C *121:A3 4.82863e-05
10 *26:12 *121:A3 4.9968e-05
*RES
1 *118:Y *121:A3 32.9205 
*END

*D_NET *34 0.000396991
*CONN
*I *120:C I *D sky130_fd_sc_hd__nor3_1
*I *119:Y O *D sky130_fd_sc_hd__a21oi_1
*CAP
1 *120:C 8.74468e-05
2 *119:Y 8.74468e-05
3 *120:C *93:A 3.21081e-06
4 *120:C *119:A1 0.000120632
5 *118:C *120:C 0
6 *120:B *120:C 4.99619e-05
7 *121:A3 *120:C 4.82919e-05
*RES
1 *119:Y *120:C 21.3539 
*END

*D_NET *35 0.000831782
*CONN
*I *121:B1 I *D sky130_fd_sc_hd__a31oi_1
*I *120:Y O *D sky130_fd_sc_hd__nor3_1
*CAP
1 *121:B1 0.000102538
2 *120:Y 0.000102538
3 *121:B1 *78:79 0.000115464
4 *110:C *121:B1 0.000172936
5 *121:A1 *121:B1 6.26016e-05
6 *121:A3 *121:B1 0.000160408
7 *10:25 *121:B1 3.29495e-05
8 *26:12 *121:B1 8.23457e-05
*RES
1 *120:Y *121:B1 32.6208 
*END

*D_NET *36 0.000358725
*CONN
*I *122:B1 I *D sky130_fd_sc_hd__o31ai_1
*I *121:Y O *D sky130_fd_sc_hd__a31oi_1
*CAP
1 *122:B1 7.64637e-05
2 *121:Y 7.64637e-05
3 *110:C *122:B1 4.82863e-05
4 *117:A *122:B1 0.000111337
5 *121:A2 *122:B1 4.61744e-05
*RES
1 *121:Y *122:B1 29.8856 
*END

*D_NET *37 0.000417413
*CONN
*I *129:A1 I *D sky130_fd_sc_hd__o21ai_0
*I *123:Y O *D sky130_fd_sc_hd__nor2_1
*CAP
1 *129:A1 8.10337e-05
2 *123:Y 8.10337e-05
3 *129:A1 *129:A2 4.82919e-05
4 *129:A1 *82:22 8.23457e-05
5 *17:16 *129:A1 5.83121e-06
6 *17:22 *129:A1 0.000118876
*RES